resultados/NW08/NW08_EXP_CURRENTS.CSV
Element, I1_1, Ang1_1, I1_2, Ang1_2, I1_3, Ang1_3, I1_4, Ang1_4, Iresid1, AngResid1, I2_1, Ang2_1, I2_2, Ang2_2, I2_3, Ang2_3, I2_4, Ang2_4, Iresid2, AngResid2
Vsource.SOURCE,    275.174,   154.73,    275.176,    34.73,    275.177,   -85.27,          0,     0.00, 0.00165615,   -53.20,    275.174,   -25.27,    275.176,  -145.27,    275.177,    94.73,          0,     0.00, 0.00165615,   126.80
Line.L_BSB_MT_2356,    1.94498,   154.80,    1.94491,    34.80,    1.94503,   -85.19,          0,     0.00, 8.1698E-005,   -85.90,    1.94498,   -25.20,    1.94491,  -145.20,    1.94503,    94.81,          0,     0.00, 8.16981E-005,    94.10
Line.L_BSB_MT_2357,    42.1818,   -25.24,     42.182,  -145.24,     42.182,    94.76,          0,     0.00, 0.000269737,    18.46,    42.1818,   154.76,     42.182,    34.76,     42.182,   -85.24,          0,     0.00, 0.000269737,  -161.54
Line.L_BSB_MT_2360,    4.09324,   155.13,    4.09347,    35.13,    4.09345,   -84.87,          0,     0.00, 0.00035385,   -50.35,    4.09324,   -24.87,    4.09347,  -144.87,    4.09345,    95.13,          0,     0.00, 0.00035385,   129.65
Line.L_BSB_MT_2361,    1.98451,   -24.92,    1.98449,  -144.92,    1.98447,    95.08,          0,     0.00, 0.000118065,   -34.15,    1.98451,   155.08,    1.98449,    35.08,    1.98447,   -84.92,          0,     0.00, 0.000118065,   145.85
Line.L_BSB_MT_8919,    60.0785,   155.11,    60.0791,    35.11,    60.0792,   -84.89,          0,     0.00, 0.00129098,   -34.07,    60.0785,   -24.89,    60.0791,  -144.89,    60.0792,    95.11,          0,     0.00, 0.00129098,   145.93
Line.L_BSB_MT_8957, 5.9222E-011,  -137.49, 7.42005E-011,   168.69, 5.82077E-011,    90.00,          0,     0.00, 1.20932E-010,   164.29, 6.43624E-011,   132.71, 4.42579E-011,  -170.54, 1.16415E-010,   -90.00,          0,     0.00, 1.16017E-010,  -138.81
Line.L_BSB_MT_8959,  0.0453434,   -12.10,  0.0453911,  -132.14,  0.0453135,   107.83,          0,     0.00, 2.59734E-005,   -82.91,  0.0453434,   167.90,  0.0453911,    47.86,  0.0453135,   -72.17,          0,     0.00, 2.59733E-005,    97.09
Line.L_BSB_MT_8960,   0.773605,   -25.24,   0.773722,  -145.24,   0.773668,    94.75,          0,     0.00, 6.40756E-005,   111.97,   0.773605,   154.76,   0.773722,    34.76,   0.773668,   -85.25,          0,     0.00, 6.40755E-005,   -68.03
Line.L_BSB_MT_8962,    31.4458,   -26.55,    31.4462,  -146.55,    31.4463,    93.45,          0,     0.00, 0.000810761,   133.76,    31.4458,   153.45,    31.4462,    33.45,    31.4463,   -86.55,          0,     0.00, 0.000810761,   -46.24
Line.L_BSB_MT_8963,   0.528112,   155.14,   0.528223,    35.13,   0.528228,   -84.88,          0,     0.00, 0.000109416,  -104.66,   0.528112,   -24.86,   0.528223,  -144.87,   0.528228,    95.12,          0,     0.00, 0.000109416,    75.34
Line.L_BSB_MT_8964,   0.528112,   155.14,   0.528223,    35.13,   0.528228,   -84.88,          0,     0.00, 0.000109416,  -104.66,   0.528112,   -24.86,   0.528223,  -144.87,   0.528228,    95.12,          0,     0.00, 0.000109415,    75.34
Line.L_BSB_MT_8965,    8.31955,   -24.89,    8.31943,  -144.89,    8.31968,    95.11,          0,     0.00, 0.000147304,   121.53,    8.31955,   155.11,    8.31943,    35.11,    8.31968,   -84.89,          0,     0.00, 0.000147304,   -58.47
Line.L_BSB_MT_8966,    13.4289,   159.00,    13.4289,    39.00,    13.4289,   -81.00,          0,     0.00, 0.000154812,   -11.14,    13.4289,   -21.00,    13.4289,  -141.00,    13.4289,    99.00,          0,     0.00, 0.000154812,   168.86
Line.L_BSB_MT_7473,    16.2547,   154.75,    16.2546,    34.75,    16.2547,   -85.25,          0,     0.00, 0.000124132,   108.53,    16.2547,   -25.25,    16.2546,  -145.25,    16.2547,    94.75,          0,     0.00, 0.000124132,   -71.47
Line.L_BSB_MT_7577,    1.94498,   154.80,    1.94491,    34.80,    1.94503,   -85.19,          0,     0.00, 8.16981E-005,   -85.90,    1.94498,   -25.20,    1.94491,  -145.20,    1.94503,    94.81,          0,     0.00, 8.1698E-005,    94.10
Line.L_BSB_MT_7578,    26.6971,   -25.24,    26.6973,  -145.24,    26.6974,    94.76,          0,     0.00, 0.000271405,    24.23,    26.6971,   154.76,    26.6973,    34.76,    26.6974,   -85.24,          0,     0.00, 0.000271405,  -155.77
Line.L_BSB_MT_6345,    275.174,   154.73,    275.176,    34.73,    275.176,   -85.27,          0,     0.00, 0.00155411,   -50.20,    275.174,   -25.27,    275.176,  -145.27,    275.176,    94.73,          0,     0.00, 0.00155411,   129.80
Line.L_BSB_MT_3678,    5.34813,   -24.89,    5.34801,  -144.89,    5.34826,    95.11,          0,     0.00, 0.000147636,   121.69,    5.34813,   155.11,    5.34801,    35.11,    5.34826,   -84.89,          0,     0.00, 0.000147636,   -58.31
Line.L_BSB_MT_3679,    8.31955,   -24.89,    8.31943,  -144.89,    8.31968,    95.11,          0,     0.00, 0.000147303,   121.53,    8.31955,   155.11,    8.31943,    35.11,    8.31968,   -84.89,          0,     0.00, 0.000147303,   -58.47
Line.L_BSB_MT_3680,    8.31955,   155.11,    8.31943,    35.11,    8.31968,   -84.89,          0,     0.00, 0.000147304,   -58.47,    8.31955,   -24.89,    8.31943,  -144.89,    8.31968,    95.11,          0,     0.00, 0.000147304,   121.53
Line.L_BSB_MT_3681,    8.31955,   155.11,    8.31943,    35.11,    8.31968,   -84.89,          0,     0.00, 0.000147304,   -58.47,    8.31955,   -24.89,    8.31943,  -144.89,    8.31968,    95.11,          0,     0.00, 0.000147304,   121.53
Line.L_BSB_MT_3682,    8.31955,   155.11,    8.31943,    35.11,    8.31968,   -84.89,          0,     0.00, 0.000147304,   -58.47,    8.31955,   -24.89,    8.31943,  -144.89,    8.31968,    95.11,          0,     0.00, 0.000147304,   121.53
Line.L_BSB_MT_3683,    8.31955,   155.11,    8.31943,    35.11,    8.31968,   -84.89,          0,     0.00, 0.000147304,   -58.47,    8.31955,   -24.89,    8.31943,  -144.89,    8.31968,    95.11,          0,     0.00, 0.000147304,   121.53
Line.L_BSB_MT_3684,    8.31955,   -24.89,    8.31943,  -144.89,    8.31968,    95.11,          0,     0.00, 0.000147303,   121.53,    8.31955,   155.11,    8.31943,    35.11,    8.31968,   -84.89,          0,     0.00, 0.000147304,   -58.47
Line.L_BSB_MT_3685,    5.67835,   -24.87,    5.67851,  -144.88,    5.67825,    95.13,          0,     0.00, 0.000295628,   154.28,    5.67835,   155.13,    5.67851,    35.12,    5.67825,   -84.87,          0,     0.00, 0.000295628,   -25.72
Line.L_BSB_MT_3686,    3.69762,   -24.87,    3.69762,  -144.88,    3.69757,    95.13,          0,     0.00, 0.000224841,    90.08,    3.69762,   155.13,    3.69762,    35.12,    3.69757,   -84.87,          0,     0.00, 0.000224841,   -89.92
Line.L_BSB_MT_3687,    1.18848,   -24.87,    1.18848,  -144.87,    1.18848,    95.13,          0,     0.00, 2.96607E-007,   133.30,    1.18848,   155.13,    1.18848,    35.13,    1.18848,   -84.87,          0,     0.00, 2.96485E-007,   -46.68
Line.L_BSB_MT_3688,    1.98076,   155.13,    1.98076,    35.13,    1.98076,   -84.87,          0,     0.00, 4.96379E-007,   -47.06,    1.98076,   -24.87,    1.98076,  -144.87,    1.98076,    95.13,          0,     0.00, 4.96362E-007,   132.94
Line.L_BSB_MT_3689,    1.98076,   155.13,    1.98076,    35.13,    1.98076,   -84.87,          0,     0.00, 4.96306E-007,   -47.08,    1.98076,   -24.87,    1.98076,  -144.87,    1.98076,    95.13,          0,     0.00, 4.96412E-007,   132.92
Line.L_BSB_MT_3690, 1.70326E-010,   109.98, 1.28725E-010,   -47.29, 1.30156E-010,   -63.43,          0,     0.00, 1.01081E-010,   -30.26, 9.31777E-011,   -51.34, 7.16599E-011,   113.96, 1.30156E-010,   116.57,          0,     0.00, 1.12953E-010,   104.93
Line.L_BSB_MT_3691, 1.56729E-010,   -68.20, 4.36557E-011,   -90.00, 2.39996E-010,   104.04,          0,     0.00, 4.36557E-011,    90.00, 8.73115E-011,    90.00, 2.04246E-010,   175.91, 1.16415E-010,   -90.00,          0,     0.00, 2.04246E-010,  -175.91
Line.L_BSB_MT_3692,    8.31955,   155.11,    8.31943,    35.11,    8.31968,   -84.89,          0,     0.00, 0.000147304,   -58.47,    8.31955,   -24.89,    8.31943,  -144.89,    8.31968,    95.11,          0,     0.00, 0.000147304,   121.53
Line.L_BSB_MT_3729,    3.76363,   155.11,    3.76367,    35.11,    3.76368,   -84.89,          0,     0.00, 2.99558E-005,   -25.80,    3.76363,   -24.89,    3.76367,  -144.89,    3.76368,    95.11,          0,     0.00, 2.99558E-005,   154.20
Line.L_BSB_MT_3747,    59.2883,   -24.89,     59.289,  -144.89,    59.2892,    95.11,          0,     0.00,  0.0012644,   147.28,    59.2883,   155.11,     59.289,    35.11,    59.2892,   -84.89,          0,     0.00,  0.0012644,   -32.72
Line.L_BSB_MT_3749,    59.2883,   -24.89,     59.289,  -144.89,    59.2892,    95.11,          0,     0.00,  0.0012644,   147.28,    59.2883,   155.11,     59.289,    35.11,    59.2892,   -84.89,          0,     0.00,  0.0012644,   -32.72
Line.L_BSB_MT_3750,    59.2883,   -24.89,     59.289,  -144.89,    59.2892,    95.11,          0,     0.00,  0.0012644,   147.28,    59.2883,   155.11,     59.289,    35.11,    59.2892,   -84.89,          0,     0.00,  0.0012644,   -32.72
Line.L_BSB_MT_3751,    59.2883,   -24.89,     59.289,  -144.89,    59.2892,    95.11,          0,     0.00,  0.0012644,   147.28,    59.2883,   155.11,     59.289,    35.11,    59.2892,   -84.89,          0,     0.00,  0.0012644,   -32.72
Line.L_BSB_MT_3754,     58.101,   -24.89,    58.1017,  -144.89,    58.1019,    95.11,          0,     0.00, 0.00126412,   147.29,     58.101,   155.11,    58.1017,    35.11,    58.1019,   -84.89,          0,     0.00, 0.00126412,   -32.71
Line.L_BSB_MT_3755,    23.7159,   -22.69,    23.7162,  -142.69,    23.7163,    97.31,          0,     0.00, 0.000459835,   158.00,    23.7159,   157.31,    23.7162,    37.31,    23.7163,   -82.69,          0,     0.00, 0.000459835,   -22.00
Line.L_BSB_MT_3756,    34.4146,   -26.40,    34.4151,  -146.40,    34.4151,    93.60,          0,     0.00, 0.000816773,   141.28,    34.4146,   153.60,    34.4151,    33.60,    34.4151,   -86.40,          0,     0.00, 0.000816773,   -38.72
Line.L_BSB_MT_3757,    34.4146,   -26.40,    34.4151,  -146.40,    34.4151,    93.60,          0,     0.00, 0.000816774,   141.28,    34.4146,   153.60,    34.4151,    33.60,    34.4151,   -86.40,          0,     0.00, 0.000816773,   -38.72
Line.L_BSB_MT_3758,    8.64919,   -24.87,    8.64939,  -144.87,    8.64918,    95.13,          0,     0.00, 0.000293651,   145.54,    8.64919,   155.13,    8.64939,    35.13,    8.64918,   -84.87,          0,     0.00, 0.000293651,   -34.46
Line.L_BSB_MT_3759,    5.67835,   -24.87,    5.67851,  -144.88,    5.67825,    95.13,          0,     0.00, 0.000295628,   154.28,    5.67835,   155.13,    5.67851,    35.12,    5.67825,   -84.87,          0,     0.00, 0.000295628,   -25.72
Line.L_BSB_MT_3760,    18.7125,   -27.69,    18.7125,  -147.69,    18.7127,    92.31,          0,     0.00, 0.000174343,   158.19,    18.7125,   152.31,    18.7125,    32.31,    18.7127,   -87.69,          0,     0.00, 0.000174342,   -21.81
Line.L_BSB_MT_3761,    18.7125,   -27.69,    18.7125,  -147.69,    18.7127,    92.31,          0,     0.00, 0.000174342,   158.19,    18.7125,   152.31,    18.7125,    32.31,    18.7127,   -87.69,          0,     0.00, 0.000174342,   -21.81
Line.L_BSB_MT_3762, 2.99995E-011,  -165.96, 6.17385E-011,   135.00, 3.25391E-011,    63.43,          0,     0.00, 8.76141E-011,   131.63, 5.86606E-011,   119.74, 4.65889E-011,   -51.34, 2.91038E-011,    90.00,          0,     0.00, 4.36557E-011,    90.00
Line.L_BSB_MT_3763,   0.792334,   155.11,   0.792334,    35.11,   0.792334,   -84.89,          0,     0.00, 1.40747E-007,   174.29,   0.792334,   -24.89,   0.792334,  -144.89,   0.792334,    95.11,          0,     0.00, 1.40717E-007,    -5.71
Line.L_BSB_MT_3764,   0.792334,   155.11,   0.792334,    35.11,   0.792334,   -84.89,          0,     0.00, 1.40571E-007,   174.35,   0.792334,   -24.89,   0.792334,  -144.89,   0.792334,    95.11,          0,     0.00, 1.40507E-007,    -5.63
Line.L_BSB_MT_3765,   0.792334,   155.11,   0.792334,    35.11,   0.792334,   -84.89,          0,     0.00, 1.40719E-007,   174.28,   0.792334,   -24.89,   0.792334,  -144.89,   0.792334,    95.11,          0,     0.00, 1.40637E-007,    -5.68
Line.L_BSB_MT_3770,   0.792334,   155.11,   0.792334,    35.11,   0.792334,   -84.89,          0,     0.00, 1.40625E-007,   174.43,   0.792334,   -24.89,   0.792334,  -144.89,   0.792334,    95.11,          0,     0.00, 1.40578E-007,    -5.56
Line.L_BSB_MT_3771,   0.792334,   155.11,   0.792334,    35.11,   0.792334,   -84.89,          0,     0.00, 1.40733E-007,   174.34,   0.792334,   -24.89,   0.792334,  -144.89,   0.792334,    95.11,          0,     0.00, 1.40536E-007,    -5.63
Line.L_BSB_MT_3772,   0.792334,   155.11,   0.792334,    35.11,   0.792334,   -84.89,          0,     0.00, 1.40631E-007,   174.40,   0.792334,   -24.89,   0.792334,  -144.89,   0.792334,    95.11,          0,     0.00, 1.40627E-007,    -5.58
Line.L_BSB_MT_3773,    3.76363,   155.11,    3.76367,    35.11,    3.76368,   -84.89,          0,     0.00, 2.99558E-005,   -25.80,    3.76363,   -24.89,    3.76367,  -144.89,    3.76368,    95.11,          0,     0.00, 2.99558E-005,   154.20
Line.L_BSB_MT_3774,    3.76363,   155.11,    3.76367,    35.11,    3.76368,   -84.89,          0,     0.00, 2.99556E-005,   -25.80,    3.76363,   -24.89,    3.76367,  -144.89,    3.76368,    95.11,          0,     0.00, 2.99556E-005,   154.20
Line.L_BSB_MT_3437,    18.9573,   -25.24,    18.9575,  -145.24,    18.9576,    94.76,          0,     0.00, 0.000270745,    24.44,    18.9573,   154.76,    18.9575,    34.76,    18.9576,   -85.24,          0,     0.00, 0.000270745,  -155.56
Line.L_BSB_MT_3450,    2.37672,   155.13,    2.37682,    35.13,    2.37689,   -84.87,          0,     0.00, 0.000155133,   -80.66,    2.37672,   -24.87,    2.37682,  -144.87,    2.37689,    95.13,          0,     0.00, 0.000155133,    99.34
Line.L_BSB_MT_3451,   0.528112,   155.14,   0.528223,    35.13,   0.528228,   -84.88,          0,     0.00, 0.000109417,  -104.66,   0.528112,   -24.86,   0.528223,  -144.87,   0.528228,    95.12,          0,     0.00, 0.000109417,    75.34
Line.L_BSB_MT_3452,   0.528112,   155.14,   0.528223,    35.13,   0.528228,   -84.88,          0,     0.00, 0.000109416,  -104.66,   0.528112,   -24.86,   0.528223,  -144.87,   0.528228,    95.12,          0,     0.00, 0.000109416,    75.34
Line.L_BSB_MT_3453,    1.71652,   155.13,     1.7167,    35.13,    1.71656,   -84.87,          0,     0.00, 0.000197442,   -38.29,    1.71652,   -24.87,     1.7167,  -144.87,    1.71656,    95.13,          0,     0.00, 0.000197442,   141.71
Line.L_BSB_MT_3454, 1.19998E-010,  -165.96, 1.36945E-010,   129.61, 7.27596E-011,    53.13,          0,     0.00, 2.09144E-010,   139.94, 1.31169E-010,    -3.18, 6.98833E-011,   -51.34, 5.99991E-011,  -104.04,          0,     0.00, 2.00089E-010,   -36.87
Line.L_BSB_MT_3455, 1.19168E-010,  -167.66, 2.91038E-011,     0.00, 6.50781E-011,  -116.57,          0,     0.00, 1.43366E-010,  -144.29, 1.02962E-010,   -32.01, 7.27596E-012,    90.00, 1.30156E-010,    63.43,          0,     0.00, 1.61101E-010,    25.41
Line.L_BSB_MT_3456, 4.36557E-011,   180.00, 1.74774E-010,    -2.39, 2.91038E-011,   180.00,          0,     0.00, 1.02123E-010,    -4.09, 4.36557E-011,     0.00, 4.42579E-011,   170.54, 2.91038E-011,   180.00,          0,     0.00, 2.99995E-011,   165.96
Line.L_BSB_MT_3457, 5.98072E-005,   -31.95, 1.40154E-005,   -79.27, 4.50236E-005,   -20.11,          0,     0.00, 0.00011338,   -32.49, 5.98073E-005,   148.05, 1.40153E-005,   100.73, 4.50235E-005,   159.89,          0,     0.00, 0.000113379,   147.51
Line.L_BSB_MT_3458,    0.52817,   155.11,   0.528214,    35.11,   0.528304,   -84.89,          0,     0.00, 0.000139491,   -59.99,    0.52817,   -24.89,   0.528214,  -144.89,   0.528304,    95.11,          0,     0.00, 0.000139491,   120.01
Line.L_BSB_MT_3460,    0.52817,   155.11,   0.528214,    35.11,   0.528304,   -84.89,          0,     0.00, 0.000139491,   -59.99,    0.52817,   -24.89,   0.528214,  -144.89,   0.528304,    95.11,          0,     0.00, 0.000139491,   120.01
Line.L_BSB_MT_3461,    1.84872,   -24.89,    1.84854,  -144.89,    1.84873,    95.11,          0,     0.00, 5.38136E-005,    28.00,    1.84872,   155.11,    1.84854,    35.11,    1.84873,   -84.89,          0,     0.00, 5.38134E-005,  -151.99
Line.L_BSB_MT_3462,    1.84872,   -24.89,    1.84854,  -144.89,    1.84873,    95.11,          0,     0.00, 5.38134E-005,    28.01,    1.84872,   155.11,    1.84854,    35.11,    1.84873,   -84.89,          0,     0.00, 5.38135E-005,  -151.99
Line.L_BSB_MT_3488,    1.05635,   155.10,    1.05626,    35.11,    1.05643,   -84.89,          0,     0.00, 5.47924E-005,   -47.84,    1.05635,   -24.90,    1.05626,  -144.89,    1.05643,    95.11,          0,     0.00, 5.47924E-005,   132.16
Line.L_BSB_MT_3489,    1.05638,   155.11,    1.05638,    35.11,    1.05638,   -84.89,          0,     0.00, 1.90627E-007,   172.38,    1.05638,   -24.89,    1.05638,  -144.89,    1.05638,    95.11,          0,     0.00, 1.90615E-007,    -7.63
Line.L_BSB_MT_3490,   0.528187,   155.11,   0.528187,    35.11,   0.528187,   -84.89,          0,     0.00, 9.51997E-008,   172.43,   0.528187,   -24.89,   0.528187,  -144.89,   0.528187,    95.11,          0,     0.00, 9.52365E-008,    -7.74
Line.L_BSB_MT_3495,    16.8332,   155.10,    16.8331,    35.10,    16.8332,   -84.90,          0,     0.00, 7.02264E-005,   -92.57,    16.8332,   -24.90,    16.8331,  -144.90,    16.8332,    95.10,          0,     0.00, 7.02264E-005,    87.43
Line.L_BSB_MT_3500,    1.18835,   -24.87,    1.18837,  -144.87,    1.18844,    95.13,          0,     0.00, 8.60498E-005,    95.00,    1.18835,   155.13,    1.18837,    35.13,    1.18844,   -84.87,          0,     0.00, 8.60498E-005,   -85.00
Line.L_BSB_MT_3504,    2.37676,   -24.87,    2.37678,  -144.87,    2.37685,    95.13,          0,     0.00, 8.62926E-005,    95.12,    2.37676,   155.13,    2.37678,    35.13,    2.37685,   -84.87,          0,     0.00, 8.62926E-005,   -84.88
Line.L_BSB_MT_3507,    16.8332,   155.10,    16.8331,    35.10,    16.8332,   -84.90,          0,     0.00, 7.02266E-005,   -92.57,    16.8332,   -24.90,    16.8331,  -144.90,    16.8332,    95.10,          0,     0.00, 7.02266E-005,    87.43
Line.L_BSB_MT_5202,    2.37689,   155.11,    2.37675,    35.11,    2.37704,   -84.89,          0,     0.00, 0.000147745,   -81.34,    2.37689,   -24.89,    2.37675,  -144.89,    2.37704,    95.11,          0,     0.00, 0.000147745,    98.66
Line.L_BSB_MT_5203,    23.7159,   -22.69,    23.7162,  -142.69,    23.7163,    97.31,          0,     0.00, 0.000459836,   158.00,    23.7159,   157.31,    23.7162,    37.31,    23.7163,   -82.69,          0,     0.00, 0.000459835,   -22.00
Line.L_BSB_MT_5204,    22.9244,   -22.61,    22.9244,  -142.61,    22.9247,    97.39,          0,     0.00, 0.000323494,   131.63,    22.9244,   157.39,    22.9244,    37.39,    22.9247,   -82.61,          0,     0.00, 0.000323494,   -48.37
Line.L_BSB_MT_5205,   0.396246,   155.12,   0.396246,    35.12,   0.396246,   -84.88,          0,     0.00, 1.02462E-007,   -52.58,   0.396246,   -24.88,   0.396246,  -144.88,   0.396246,    95.12,          0,     0.00, 1.02267E-007,   127.42
Line.L_BSB_MT_5216, 4.65889E-011,   128.66, 3.01426E-010,   -29.66, 2.09871E-010,  -123.69,          0,     0.00, 3.10083E-010,   -67.95, 4.42579E-011,    -9.46, 3.55574E-010,   160.27, 2.09871E-010,    56.31,          0,     0.00, 3.36292E-010,   121.28
Line.L_BSB_MT_5222, 4.65889E-011,   -51.34, 3.43206E-010,    85.14, 2.91038E-011,     0.00,          0,     0.00, 3.17819E-010,    74.05, 1.38243E-010,    90.00, 5.0666E-010,   -54.94, 1.19998E-010,   104.04,          0,     0.00, 3.06973E-010,   -31.43
Line.L_BSB_MT_5232,    8.31955,   155.11,    8.31943,    35.11,    8.31968,   -84.89,          0,     0.00, 0.000147304,   -58.47,    8.31955,   -24.89,    8.31943,  -144.89,    8.31968,    95.11,          0,     0.00, 0.000147304,   121.53
Line.L_BSB_MT_5233,    8.31955,   -24.89,    8.31943,  -144.89,    8.31968,    95.11,          0,     0.00, 0.000147304,   121.53,    8.31955,   155.11,    8.31943,    35.11,    8.31968,   -84.89,          0,     0.00, 0.000147304,   -58.47
Line.L_BSB_MT_5234,    1.18848,   155.13,    1.18848,    35.13,    1.18848,   -84.87,          0,     0.00, 2.96691E-007,   -46.59,    1.18848,   -24.87,    1.18848,  -144.87,    1.18848,    95.13,          0,     0.00, 2.96744E-007,   133.40
Line.L_BSB_MT_5235,    2.50914,   -24.87,    2.50914,  -144.88,    2.50909,    95.13,          0,     0.00, 0.000224624,    90.03,    2.50914,   155.13,    2.50914,    35.12,    2.50909,   -84.87,          0,     0.00, 0.000224624,   -89.97
Line.L_BSB_MT_5236,    2.37672,   155.13,    2.37682,    35.13,    2.37689,   -84.87,          0,     0.00, 0.000155133,   -80.66,    2.37672,   -24.87,    2.37682,  -144.87,    2.37689,    95.13,          0,     0.00, 0.000155133,    99.34
Line.L_BSB_MT_5249,    60.0784,   -24.89,     60.079,  -144.89,    60.0792,    95.11,          0,     0.00, 0.00126986,   142.76,    60.0784,   155.11,     60.079,    35.11,    60.0792,   -84.89,          0,     0.00, 0.00126986,   -37.24
Line.L_BSB_MT_5250,    59.2883,   -24.89,     59.289,  -144.89,    59.2892,    95.11,          0,     0.00,  0.0012644,   147.28,    59.2883,   155.11,     59.289,    35.11,    59.2892,   -84.89,          0,     0.00,  0.0012644,   -32.72
Line.L_BSB_MT_5251,    59.2883,   -24.89,     59.289,  -144.89,    59.2892,    95.11,          0,     0.00,  0.0012644,   147.28,    59.2883,   155.11,     59.289,    35.11,    59.2892,   -84.89,          0,     0.00,  0.0012644,   -32.72
Line.L_BSB_MT_5252,    34.4146,   -26.40,    34.4151,  -146.40,    34.4151,    93.60,          0,     0.00, 0.000816773,   141.28,    34.4146,   153.60,    34.4151,    33.60,    34.4151,   -86.40,          0,     0.00, 0.000816773,   -38.72
Line.L_BSB_MT_5253,    12.7424,   155.13,    12.7428,    35.13,    12.7427,   -84.87,          0,     0.00, 0.000655997,   -52.55,    12.7424,   -24.87,    12.7428,  -144.87,    12.7427,    95.13,          0,     0.00, 0.000655997,   127.45
Line.L_BSB_MT_5254,    5.67835,   -24.87,    5.67851,  -144.88,    5.67825,    95.13,          0,     0.00, 0.000295628,   154.28,    5.67835,   155.13,    5.67851,    35.12,    5.67825,   -84.87,          0,     0.00, 0.000295627,   -25.72
Line.L_BSB_MT_5255, 5.29698E-011,   105.95, 6.7081E-011,    49.40, 7.27596E-011,   -53.13,          0,     0.00, 8.48515E-011,    30.96, 4.65889E-011,   -51.34, 8.99986E-011,  -165.96, 1.17321E-010,    97.13,          0,     0.00, 9.31777E-011,   141.34
Line.L_BSB_MT_5256,   0.792334,   155.11,   0.792334,    35.11,   0.792334,   -84.89,          0,     0.00, 1.40686E-007,   174.35,   0.792334,   -24.89,   0.792334,  -144.89,   0.792334,    95.11,          0,     0.00, 1.40615E-007,    -5.65
Line.L_BSB_MT_5259,    6.73525,   155.11,    6.73531,    35.11,    6.73526,   -84.89,          0,     0.00, 8.71925E-005,    42.02,    6.73525,   -24.89,    6.73531,  -144.89,    6.73526,    95.11,          0,     0.00, 8.71926E-005,  -137.98
Line.L_BSB_MT_5260,    3.55475,   -39.79,    3.55461,  -159.79,    3.55481,    80.21,          0,     0.00, 0.000242479,    14.09,    3.55475,   140.21,    3.55461,    20.21,    3.55481,   -99.79,          0,     0.00, 0.000242479,  -165.91
Line.L_BSB_MT_5261,    18.7126,   152.31,    18.7125,    32.31,    18.7128,   -87.69,          0,     0.00, 0.000102873,   -35.50,    18.7126,   -27.69,    18.7125,  -147.69,    18.7128,    92.31,          0,     0.00, 0.000102873,   144.50
Line.L_BSB_MT_5262, 2.63143E-005,    18.16, 0.00013101,  -175.67, 5.52643E-005,    23.90,          0,     0.00, 5.88686E-005,   159.41, 2.63145E-005,  -161.84, 0.00013101,     4.33, 5.52642E-005,  -156.10,          0,     0.00, 5.88682E-005,   -20.59
Line.L_BSB_MT_5263,    3.96078,   155.10,    3.96074,    35.10,     3.9608,   -84.90,          0,     0.00, 2.32317E-005,  -141.74,    3.96078,   -24.90,    3.96074,  -144.90,     3.9608,    95.10,          0,     0.00, 2.32318E-005,    38.26
Line.L_BSB_MT_5264,    7.92172,   155.10,    7.92167,    35.10,    7.92173,   -84.90,          0,     0.00, 2.37314E-005,  -142.94,    7.92172,   -24.90,    7.92167,  -144.90,    7.92173,    95.10,          0,     0.00, 2.37313E-005,    37.06
Line.L_BSB_MT_5265,    16.8332,   155.10,    16.8331,    35.10,    16.8332,   -84.90,          0,     0.00, 7.02265E-005,   -92.57,    16.8332,   -24.90,    16.8331,  -144.90,    16.8332,    95.10,          0,     0.00, 7.02265E-005,    87.43
Line.L_BSB_MT_5266,    16.8332,   155.10,    16.8331,    35.10,    16.8332,   -84.90,          0,     0.00, 7.0227E-005,   -92.57,    16.8332,   -24.90,    16.8331,  -144.90,    16.8332,    95.10,          0,     0.00, 7.0227E-005,    87.43
Line.L_BSB_MT_5268,    16.8332,   155.10,    16.8331,    35.10,    16.8332,   -84.90,          0,     0.00, 0.000121838,  -133.12,    16.8332,   -24.90,    16.8331,  -144.90,    16.8332,    95.10,          0,     0.00, 0.000121838,    46.88
Line.L_BSB_MT_5269,    2.50911,   155.13,    2.50906,    35.13,    2.50907,   -84.87,          0,     0.00, 3.56349E-005,    32.14,    2.50911,   -24.87,    2.50906,  -144.87,    2.50907,    95.13,          0,     0.00, 3.56348E-005,  -147.86
Line.L_BSB_MT_5287,   0.528294,   155.12,   0.528213,    35.12,   0.528318,   -84.87,          0,     0.00, 6.82051E-005,  -104.08,   0.528294,   -24.88,   0.528213,  -144.88,   0.528318,    95.13,          0,     0.00, 6.82052E-005,    75.92
Line.L_BSB_MT_5288,    2.37676,   -24.87,    2.37678,  -144.87,    2.37685,    95.13,          0,     0.00, 8.62931E-005,    95.12,    2.37676,   155.13,    2.37678,    35.13,    2.37685,   -84.87,          0,     0.00, 8.6293E-005,   -84.88
Line.L_BSB_MT_5289,    18.7126,   152.31,    18.7125,    32.31,    18.7128,   -87.69,          0,     0.00, 0.000102872,   -35.50,    18.7126,   -27.69,    18.7125,  -147.69,    18.7128,    92.31,          0,     0.00, 0.000102872,   144.50
Line.L_BSB_MT_5290,    14.1629,   151.41,    14.1628,    31.41,     14.163,   -88.59,          0,     0.00, 0.000102062,   -35.32,    14.1629,   -28.59,    14.1628,  -148.59,     14.163,    91.41,          0,     0.00, 0.000102062,   144.68
Line.L_BSB_MT_5291,    10.2115,   149.97,    10.2114,    29.97,    10.2116,   -90.02,          0,     0.00, 0.00010268,   -35.12,    10.2115,   -30.03,    10.2114,  -150.03,    10.2116,    89.98,          0,     0.00, 0.00010268,   144.88
Line.L_BSB_MT_5293,    215.098,   154.62,    215.099,    34.62,    215.099,   -85.38,          0,     0.00, 0.000476632,   -99.00,    215.098,   -25.38,    215.099,  -145.38,    215.099,    94.62,          0,     0.00, 0.000476632,    81.00
Line.L_BSB_MT_5294,    215.098,   154.62,    215.099,    34.62,    215.099,   -85.38,          0,     0.00, 0.000476632,   -99.00,    215.098,   -25.38,    215.099,  -145.38,    215.099,    94.62,          0,     0.00, 0.000476632,    81.00
Line.L_BSB_MT_5295,    275.174,   -25.27,    275.176,  -145.27,    275.176,    94.73,          0,     0.00, 0.00155411,   129.80,    275.174,   154.73,    275.176,    34.73,    275.176,   -85.27,          0,     0.00, 0.00155411,   -50.20
Line.L_BSB_MT_5308,    8.91152,   -24.90,    8.91151,  -144.90,    8.91141,    95.10,          0,     0.00, 0.000101967,  -111.13,    8.91152,   155.10,    8.91151,    35.10,    8.91141,   -84.90,          0,     0.00, 0.000101967,    68.87
Line.L_BSB_MT_5309,    2.97048,   -24.90,    2.97046,  -144.90,    2.97037,    95.10,          0,     0.00, 7.56789E-005,   -99.23,    2.97048,   155.10,    2.97046,    35.10,    2.97037,   -84.90,          0,     0.00, 7.56789E-005,    80.77
Line.L_BSB_MT_7582,    21.3933,   154.81,    21.3932,    34.81,    21.3933,   -85.19,          0,     0.00, 0.000256878,   170.11,    21.3933,   -25.19,    21.3932,  -145.19,    21.3933,    94.81,          0,     0.00, 0.000256878,    -9.89
Line.L_BSB_MT_7602,    3.88307,   -25.21,    3.88306,  -145.21,    3.88306,    94.79,          0,     0.00, 6.2513E-007,   -27.01,    3.88307,   154.79,    3.88306,    34.79,    3.88306,   -85.21,          0,     0.00, 6.25248E-007,   152.98
Line.L_BSB_MT_7640,    1.05635,   -24.90,    1.05626,  -144.89,    1.05643,    95.11,          0,     0.00, 5.47926E-005,   132.16,    1.05635,   155.10,    1.05626,    35.11,    1.05643,   -84.89,          0,     0.00, 5.47925E-005,   -47.84
Line.L_BSB_MT_7647,    34.4146,   153.60,    34.4151,    33.60,    34.4151,   -86.40,          0,     0.00, 0.000816773,   -38.72,    34.4146,   -26.40,    34.4151,  -146.40,    34.4151,    93.60,          0,     0.00, 0.000816773,   141.28
Line.L_BSB_MT_7648,   0.528294,   155.12,   0.528213,    35.12,   0.528318,   -84.87,          0,     0.00, 6.82046E-005,  -104.08,   0.528294,   -24.88,   0.528213,  -144.88,   0.528318,    95.13,          0,     0.00, 6.82046E-005,    75.92
Line.L_BSB_MT_3614,    23.3203,   -22.65,    23.3203,  -142.65,    23.3206,    97.35,          0,     0.00, 0.000323597,   131.63,    23.3203,   157.35,    23.3203,    37.35,    23.3206,   -82.65,          0,     0.00, 0.000323597,   -48.37
Line.L_BSB_MT_3615,    23.3203,   -22.65,    23.3203,  -142.65,    23.3206,    97.35,          0,     0.00, 0.000323597,   131.63,    23.3203,   157.35,    23.3203,    37.35,    23.3206,   -82.65,          0,     0.00, 0.000323597,   -48.37
Line.L_BSB_MT_3616,    23.3203,   -22.65,    23.3203,  -142.65,    23.3206,    97.35,          0,     0.00, 0.000323597,   131.63,    23.3203,   157.35,    23.3203,    37.35,    23.3206,   -82.65,          0,     0.00, 0.000323597,   -48.37
Line.L_BSB_MT_3617,    22.9244,   -22.61,    22.9244,  -142.61,    22.9247,    97.39,          0,     0.00, 0.000323494,   131.63,    22.9244,   157.39,    22.9244,    37.39,    22.9247,   -82.61,          0,     0.00, 0.000323494,   -48.37
Line.L_BSB_MT_3618,    22.9244,   -22.61,    22.9244,  -142.61,    22.9247,    97.39,          0,     0.00, 0.000323494,   131.63,    22.9244,   157.39,    22.9244,    37.39,    22.9247,   -82.61,          0,     0.00, 0.000323494,   -48.37
Line.L_BSB_MT_3619,    22.9244,   -22.61,    22.9244,  -142.61,    22.9247,    97.39,          0,     0.00, 0.000323494,   131.63,    22.9244,   157.39,    22.9244,    37.39,    22.9247,   -82.61,          0,     0.00, 0.000323494,   -48.37
Line.L_BSB_MT_3620,    1.18889,   -24.89,    1.18887,  -144.89,    1.18895,    95.11,          0,     0.00, 9.65347E-005,    80.90,    1.18889,   155.11,    1.18887,    35.11,    1.18895,   -84.89,          0,     0.00, 9.65347E-005,   -99.10
Line.L_BSB_MT_3637, 3.23105E-010,   144.16, 1.4332E-010,   -66.04, 1.19998E-010,  -104.04,          0,     0.00, 2.39996E-010,  -165.96, 2.08352E-010,   -12.09, 1.64636E-010,   135.00, 2.34643E-010,    82.87,          0,     0.00, 3.27014E-010,    69.15
Line.L_BSB_MT_3638, 5.99991E-011,   165.96, 1.84069E-010,    18.43, 2.32831E-010,   -90.00,          0,     0.00, 1.97927E-010,   -53.97, 6.50781E-011,   -26.57, 2.08352E-010,  -167.91, 2.39996E-010,    75.96,          0,     0.00, 1.82335E-010,   118.61
Line.L_BSB_MT_3639,    5.34813,   -24.89,    5.34801,  -144.89,    5.34826,    95.11,          0,     0.00, 0.000147636,   121.69,    5.34813,   155.11,    5.34801,    35.11,    5.34826,   -84.89,          0,     0.00, 0.000147636,   -58.31
Line.L_BSB_MT_3644,    60.0785,   -24.89,    60.0791,  -144.89,    60.0792,    95.11,          0,     0.00, 0.00129098,   145.93,    60.0785,   155.11,    60.0791,    35.11,    60.0792,   -84.89,          0,     0.00, 0.00129098,   -34.07
Line.L_BSB_MT_3775,    6.73525,   155.11,    6.73531,    35.11,    6.73526,   -84.89,          0,     0.00, 8.71927E-005,    42.02,    6.73525,   -24.89,    6.73531,  -144.89,    6.73526,    95.11,          0,     0.00, 8.71927E-005,  -137.98
Line.L_BSB_MT_3776,    6.73525,   155.11,    6.73531,    35.11,    6.73526,   -84.89,          0,     0.00, 8.71924E-005,    42.02,    6.73525,   -24.89,    6.73531,  -144.89,    6.73526,    95.11,          0,     0.00, 8.71925E-005,  -137.98
Line.L_BSB_MT_3828,    2.37689,   155.11,    2.37675,    35.11,    2.37704,   -84.89,          0,     0.00, 0.000147745,   -81.34,    2.37689,   -24.89,    2.37675,  -144.89,    2.37704,    95.11,          0,     0.00, 0.000147745,    98.66
Line.L_BSB_MT_3847, 3.91822E-010,   111.80, 1.43504E-010,    59.53, 1.30156E-010,  -116.57,          0,     0.00, 3.93508E-010,   109.44, 4.0747E-010,   -66.87, 2.7651E-010,   -32.64, 2.60313E-010,   116.57,          0,     0.00, 4.01432E-010,   -46.47
Line.L_BSB_MT_3848, 7.73445E-011,   131.19, 3.25391E-011,    63.43, 1.45519E-010,  -126.87,          0,     0.00, 1.27069E-010,  -166.76, 1.04746E-010,   -69.68, 3.65612E-011,     5.71, 2.34643E-010,    29.74,          0,     0.00, 2.77347E-010,     4.51
Line.L_BSB_MT_3849,    1.18835,   -24.87,    1.18837,  -144.87,    1.18844,    95.13,          0,     0.00, 8.60496E-005,    95.00,    1.18835,   155.13,    1.18837,    35.13,    1.18844,   -84.87,          0,     0.00, 8.60496E-005,   -85.00
Line.L_BSB_MT_3853,    15.7452,   151.78,    15.7451,    31.78,    15.7453,   -88.22,          0,     0.00, 0.000102135,   -35.39,    15.7452,   -28.22,    15.7451,  -148.22,    15.7453,    91.78,          0,     0.00, 0.000102135,   144.61
Line.L_BSB_MT_3854,    15.7452,   151.78,    15.7451,    31.78,    15.7453,   -88.22,          0,     0.00, 0.000102135,   -35.39,    15.7452,   -28.22,    15.7451,  -148.22,    15.7453,    91.78,          0,     0.00, 0.000102135,   144.61
Line.L_BSB_MT_3855,     14.954,   151.61,    14.9539,    31.61,    14.9542,   -88.39,          0,     0.00, 0.00010194,   -35.36,     14.954,   -28.39,    14.9539,  -148.39,    14.9542,    91.61,          0,     0.00, 0.000101939,   144.64
Line.L_BSB_MT_3856,     14.954,   151.61,    14.9539,    31.61,    14.9542,   -88.39,          0,     0.00, 0.000101939,   -35.36,     14.954,   -28.39,    14.9539,  -148.39,    14.9542,    91.61,          0,     0.00, 0.000101939,   144.64
Line.L_BSB_MT_3857,     14.954,   151.61,    14.9539,    31.61,    14.9542,   -88.39,          0,     0.00, 0.00010194,   -35.36,     14.954,   -28.39,    14.9539,  -148.39,    14.9542,    91.61,          0,     0.00, 0.00010194,   144.64
Line.L_BSB_MT_3858,    14.1629,   151.41,    14.1628,    31.41,     14.163,   -88.59,          0,     0.00, 0.000102062,   -35.32,    14.1629,   -28.59,    14.1628,  -148.59,     14.163,    91.41,          0,     0.00, 0.000102062,   144.68
Line.L_BSB_MT_3859,    14.1629,   151.41,    14.1628,    31.41,     14.163,   -88.59,          0,     0.00, 0.000102063,   -35.32,    14.1629,   -28.59,    14.1628,  -148.59,     14.163,    91.41,          0,     0.00, 0.000102063,   144.68
Line.L_BSB_MT_3860,    10.2115,   149.97,    10.2114,    29.97,    10.2116,   -90.02,          0,     0.00, 0.000102681,   -35.13,    10.2115,   -30.03,    10.2114,  -150.03,    10.2116,    89.98,          0,     0.00, 0.00010268,   144.87
Line.L_BSB_MT_3861,    10.2115,   149.97,    10.2114,    29.97,    10.2116,   -90.02,          0,     0.00, 0.00010268,   -35.13,    10.2115,   -30.03,    10.2114,  -150.03,    10.2116,    89.98,          0,     0.00, 0.00010268,   144.87
Line.L_BSB_MT_3862,    10.2114,   149.97,    10.2114,    29.97,    10.2115,   -90.03,          0,     0.00, 6.6994E-005,   -29.22,    10.2114,   -30.03,    10.2114,  -150.03,    10.2115,    89.97,          0,     0.00, 6.69939E-005,   150.78
Line.L_BSB_MT_3865,    215.098,   154.62,    215.099,    34.62,    215.099,   -85.38,          0,     0.00, 0.000476632,   -99.00,    215.098,   -25.38,    215.099,  -145.38,    215.099,    94.62,          0,     0.00, 0.000476632,    81.00
Line.L_BSB_MT_3866,    215.098,   154.62,    215.099,    34.62,    215.099,   -85.38,          0,     0.00, 0.000476632,   -99.00,    215.098,   -25.38,    215.099,  -145.38,    215.099,    94.62,          0,     0.00, 0.000476632,    81.00
Line.L_BSB_MT_3867,    215.098,   154.62,    215.099,    34.62,    215.099,   -85.38,          0,     0.00, 0.000476632,   -99.00,    215.098,   -25.38,    215.099,  -145.38,    215.099,    94.62,          0,     0.00, 0.000476632,    81.00
Line.L_BSB_MT_3868,    215.098,   154.62,    215.099,    34.62,    215.099,   -85.38,          0,     0.00, 0.000476632,   -99.00,    215.098,   -25.38,    215.099,  -145.38,    215.099,    94.62,          0,     0.00, 0.000476632,    81.00
Line.L_BSB_MT_3869,    215.098,   154.62,    215.099,    34.62,    215.099,   -85.38,          0,     0.00, 0.000476632,   -99.00,    215.098,   -25.38,    215.099,  -145.38,    215.099,    94.62,          0,     0.00, 0.000476632,    81.00
Line.L_BSB_MT_3870,    275.174,   -25.27,    275.176,  -145.27,    275.176,    94.73,          0,     0.00, 0.00155411,   129.80,    275.174,   154.73,    275.176,    34.73,    275.176,   -85.27,          0,     0.00, 0.00155411,   -50.20
Line.L_BSB_MT_3871,    275.174,   -25.27,    275.176,  -145.27,    275.176,    94.73,          0,     0.00, 0.00155411,   129.80,    275.174,   154.73,    275.176,    34.73,    275.176,   -85.27,          0,     0.00, 0.00155411,   -50.20
Line.L_BSB_MT_3872,    275.174,   -25.27,    275.176,  -145.27,    275.176,    94.73,          0,     0.00, 0.00155411,   129.80,    275.174,   154.73,    275.176,    34.73,    275.176,   -85.27,          0,     0.00, 0.00155411,   -50.20
Line.L_BSB_MT_3873,    275.174,   -25.27,    275.176,  -145.27,    275.176,    94.73,          0,     0.00, 0.00155411,   129.80,    275.174,   154.73,    275.176,    34.73,    275.176,   -85.27,          0,     0.00, 0.00155411,   -50.20
Line.L_BSB_MT_3889,    1.18835,   -24.87,    1.18837,  -144.87,    1.18844,    95.13,          0,     0.00, 8.60497E-005,    95.00,    1.18835,   155.13,    1.18837,    35.13,    1.18844,   -84.87,          0,     0.00, 8.60496E-005,   -85.00
Line.L_BSB_MT_5310,    1.18835,   -24.87,    1.18837,  -144.87,    1.18844,    95.13,          0,     0.00, 8.60495E-005,    95.00,    1.18835,   155.13,    1.18837,    35.13,    1.18844,   -84.87,          0,     0.00, 8.60495E-005,   -85.00
Line.L_BSB_MT_5330, 4.42579E-011,   170.54, 9.32487E-011,    20.56, 6.50781E-011,   -63.43,          0,     0.00, 7.49989E-011,   -14.04, 4.00178E-011,    90.00, 4.88086E-011,  -153.43, 1.17321E-010,    97.13,          0,     0.00, 1.46652E-010,   113.39
Line.L_BSB_MT_5337,   0.773714,   -25.24,   0.773713,  -145.24,   0.773713,    94.76,          0,     0.00, 1.18872E-007,   -31.86,   0.773714,   154.76,   0.773713,    34.76,   0.773713,   -85.24,          0,     0.00, 1.18496E-007,   147.95
Line.L_BSB_MT_7811,    3.76369,   -24.89,    3.76369,  -144.89,    3.76369,    95.11,          0,     0.00, 6.69162E-007,    -5.78,    3.76369,   155.11,    3.76369,    35.11,    3.76369,   -84.89,          0,     0.00, 6.6919E-007,   174.23
Line.L_BSB_MT_7813,     14.954,   151.61,    14.9539,    31.61,    14.9542,   -88.39,          0,     0.00, 0.000101939,   -35.36,     14.954,   -28.39,    14.9539,  -148.39,    14.9542,    91.61,          0,     0.00, 0.00010194,   144.64
Line.L_BSB_MT_2783, 9.09495E-012,   143.13, 6.55846E-011,   123.69,          0,     0.00,          0,     0.00, 7.42228E-011,   126.03, 9.09495E-012,   -90.00, 2.99995E-011,   -14.04, 5.99991E-011,    75.96,          0,     0.00, 6.0466E-011,    43.78
Line.L_BSB_MT_9079,    1.94487,   -25.19,     1.9449,  -145.19,    1.94496,    94.80,          0,     0.00, 7.33652E-005,    52.73,    1.94487,   154.81,     1.9449,    34.81,    1.94496,   -85.20,          0,     0.00, 7.33652E-005,  -127.27
Line.L_BSB_MT_9080,    70.0858,   -25.24,    70.0861,  -145.24,     70.086,    94.76,          0,     0.00, 0.000265977,   -29.03,    70.0858,   154.76,    70.0861,    34.76,     70.086,   -85.24,          0,     0.00, 0.000265977,   150.97
Line.L_BSB_MT_9081,    15.7452,   151.78,    15.7451,    31.78,    15.7453,   -88.22,          0,     0.00, 0.000102135,   -35.39,    15.7452,   -28.22,    15.7451,  -148.22,    15.7453,    91.78,          0,     0.00, 0.000102135,   144.61
Line.L_BSB_MT_9082,    3.76363,   155.11,    3.76367,    35.11,    3.76368,   -84.89,          0,     0.00, 2.99558E-005,   -25.80,    3.76363,   -24.89,    3.76367,  -144.89,    3.76368,    95.11,          0,     0.00, 2.99557E-005,   154.20
Line.L_BSB_MT_9083,   0.792334,   155.11,   0.792334,    35.11,   0.792334,   -84.89,          0,     0.00, 1.40651E-007,   174.32,   0.792334,   -24.89,   0.792334,  -144.89,   0.792334,    95.11,          0,     0.00, 1.40582E-007,    -5.64
Line.L_BSB_MT_3925,    8.91152,   -24.90,    8.91151,  -144.90,    8.91141,    95.10,          0,     0.00, 0.000101967,  -111.13,    8.91152,   155.10,    8.91151,    35.10,    8.91141,   -84.90,          0,     0.00, 0.000101967,    68.87
Line.L_BSB_MT_3926,    8.91152,   -24.90,    8.91151,  -144.90,    8.91141,    95.10,          0,     0.00, 0.000101967,  -111.13,    8.91152,   155.10,    8.91151,    35.10,    8.91141,   -84.90,          0,     0.00, 0.000101967,    68.87
Line.L_BSB_MT_3927,    8.91152,   -24.90,    8.91151,  -144.90,    8.91141,    95.10,          0,     0.00, 0.000101967,  -111.13,    8.91152,   155.10,    8.91151,    35.10,    8.91141,   -84.90,          0,     0.00, 0.000101967,    68.87
Line.L_BSB_MT_3928,    5.94096,   -24.90,    5.94093,  -144.90,    5.94084,    95.10,          0,     0.00, 7.56557E-005,   -98.83,    5.94096,   155.10,    5.94093,    35.10,    5.94084,   -84.90,          0,     0.00, 7.56557E-005,    81.17
Line.L_BSB_MT_3929,    2.97048,   -24.90,    2.97046,  -144.90,    2.97037,    95.10,          0,     0.00, 7.5679E-005,   -99.23,    2.97048,   155.10,    2.97046,    35.10,    2.97037,   -84.90,          0,     0.00, 7.56791E-005,    80.77
Line.L_BSB_MT_3930,    2.97048,   155.10,    2.97046,    35.10,    2.97037,   -84.90,          0,     0.00, 7.5679E-005,    80.77,    2.97048,   -24.90,    2.97046,  -144.90,    2.97037,    95.10,          0,     0.00, 7.5679E-005,   -99.23
Line.L_BSB_MT_3932, 2.44043E-011,  -153.43, 1.00094E-010,    19.09, 5.82077E-011,     0.00,          0,     0.00, 1.32774E-010,     9.46, 4.24647E-011,   -46.74, 7.09406E-011,    22.62,          0,     0.00,          0,     0.00, 9.46574E-011,    -2.20
Line.L_BSB_MT_3933,    4.09324,   155.13,    4.09352,    35.13,    4.09345,   -84.87,          0,     0.00, 0.000329099,   -56.81,    4.09324,   -24.87,    4.09352,  -144.87,    4.09345,    95.13,          0,     0.00, 0.000329099,   123.19
Line.L_BSB_MT_3940,    16.8332,   155.10,    16.8331,    35.10,    16.8332,   -84.90,          0,     0.00, 7.02264E-005,   -92.57,    16.8332,   -24.90,    16.8331,  -144.90,    16.8332,    95.10,          0,     0.00, 7.02265E-005,    87.43
Line.L_BSB_MT_7868,    2.91241,   -25.21,    2.91241,  -145.21,    2.91241,    94.79,          0,     0.00, 4.69099E-007,   -26.92,    2.91241,   154.79,    2.91241,    34.79,    2.91241,   -85.21,          0,     0.00, 4.69114E-007,   153.04
Line.L_BSB_MT_5539,    44.2244,   154.78,    44.2246,    34.78,    44.2247,   -85.22,          0,     0.00, 8.13441E-005,  -146.63,    44.2244,   -25.22,    44.2246,  -145.22,    44.2247,    94.78,          0,     0.00, 8.13442E-005,    33.37
Line.L_BSB_MT_5540,    2.70786,   -25.24,    2.70809,  -145.24,    2.70799,    94.75,          0,     0.00, 8.08207E-005,   139.96,    2.70786,   154.76,    2.70809,    34.76,    2.70799,   -85.25,          0,     0.00, 8.08207E-005,   -40.04
Line.L_BSB_MT_5541,    1.94505,   -25.19,    1.94505,  -145.19,    1.94505,    94.81,          0,     0.00, 3.20074E-007,   -26.94,    1.94505,   154.81,    1.94505,    34.81,    1.94505,   -85.19,          0,     0.00, 3.20356E-007,   153.23
Line.L_BSB_MT_5542,    30.6214,   154.77,    30.6216,    34.77,    30.6215,   -85.23,          0,     0.00, 0.00015693,   122.39,    30.6214,   -25.23,    30.6216,  -145.23,    30.6215,    94.77,          0,     0.00, 0.00015693,   -57.61
Line.L_BSB_MT_5543,    16.2547,   154.75,    16.2547,    34.75,    16.2546,   -85.25,          0,     0.00, 0.000157486,   104.18,    16.2547,   -25.25,    16.2547,  -145.25,    16.2546,    94.75,          0,     0.00, 0.000157486,   -75.82
Line.L_BSB_MT_5544,    18.9573,   -25.24,    18.9575,  -145.24,    18.9576,    94.76,          0,     0.00, 0.000270745,    24.44,    18.9573,   154.76,    18.9575,    34.76,    18.9576,   -85.24,          0,     0.00, 0.000270744,  -155.56
Line.L_BSB_MT_5547,    215.098,   154.62,    215.099,    34.62,    215.099,   -85.38,          0,     0.00, 0.000476631,   -99.00,    215.098,   -25.38,    215.099,  -145.38,    215.099,    94.62,          0,     0.00, 0.000476631,    81.00
Line.L_BSB_MT_5560,    5.82568,   -25.21,    5.82568,  -145.21,    5.82568,    94.79,          0,     0.00, 9.5907E-007,   -23.40,    5.82568,   154.79,    5.82568,    34.79,    5.82568,   -85.21,          0,     0.00, 9.59047E-007,   156.60
Line.L_BSB_MT_2017,    1.94498,   154.80,    1.94491,    34.80,    1.94503,   -85.19,          0,     0.00, 8.16981E-005,   -85.90,    1.94498,   -25.20,    1.94491,  -145.20,    1.94503,    94.81,          0,     0.00, 8.16981E-005,    94.10
Line.L_BSB_MT_2892, 1.59574E-010,   -43.15, 4.66244E-010,   147.43, 2.11879E-010,   -15.95,          0,     0.00, 1.10884E-010,   131.01, 1.59574E-010,   136.85, 4.60531E-010,   -27.78, 2.32831E-010,   180.00,          0,     0.00, 1.20493E-010,   -61.11
Line.L_BSB_MT_2893, 2.3914E-010,   -56.79, 4.33897E-010,   159.89, 2.11879E-010,   -15.95,          0,     0.00, 1.31169E-010,  -123.69, 2.59089E-010,   128.16, 4.71817E-010,   -19.83, 2.25906E-010,   165.07,          0,     0.00, 1.21096E-010,    57.26
Line.L_BSB_MT_2894, 1.41508E-010,   -43.96, 3.61901E-010,   149.83, 2.25906E-010,    14.93,          0,     0.00, 1.42068E-010,    87.06, 1.52318E-010,   139.84, 2.50361E-010,   -35.54, 1.60071E-010,   180.00,          0,     0.00, 8.67793E-011,  -146.98
Line.L_BSB_MT_2895, 1.28571E-010,   -25.11, 4.29112E-010,   161.72, 2.60313E-010,    26.57,          0,     0.00, 2.04893E-010,   106.50, 1.72833E-010,   139.27, 3.91822E-010,   -21.80, 3.02806E-010,  -144.78,          0,     0.00, 2.07875E-010,   -94.01
Line.L_BSB_MT_2896, 9.7888E-011,   -48.01, 4.76672E-010,   167.66, 2.99995E-010,    22.83,          0,     0.00, 1.90985E-010,   130.36, 7.73445E-011,   138.81, 4.30943E-010,   -11.69, 2.99995E-010,  -157.17,          0,     0.00, 1.75982E-010,   -60.26
Line.L_BSB_MT_6637,    275.174,   -25.27,    275.176,  -145.27,    275.176,    94.73,          0,     0.00, 0.00155411,   129.80,    275.174,   154.73,    275.176,    34.73,    275.176,   -85.27,          0,     0.00, 0.00155411,   -50.20
Line.L_BSB_MT_6639, 6.17385E-011,    45.00, 1.38052E-010,   -18.43, 2.91038E-011,     0.00,          0,     0.00, 2.03727E-010,     0.00, 4.60172E-011,  -108.43, 1.65917E-010,   142.13, 8.73115E-011,     0.00,          0,     0.00, 8.23181E-011,   135.00
Line.L_BSB_MT_2112,  0.0453434,   -12.10,  0.0453911,  -132.14,  0.0453135,   107.83,          0,     0.00, 2.59732E-005,   -82.91,  0.0453434,   167.90,  0.0453911,    47.86,  0.0453135,   -72.17,          0,     0.00, 2.59732E-005,    97.09
Line.L_BSB_MT_2113,  0.0453434,   -12.10,  0.0453911,  -132.14,  0.0453135,   107.83,          0,     0.00, 2.59732E-005,   -82.91,  0.0453434,   167.90,  0.0453911,    47.86,  0.0453135,   -72.17,          0,     0.00, 2.5973E-005,    97.09
Line.L_BSB_MT_2114,    1.98451,   -24.92,    1.98449,  -144.92,    1.98447,    95.08,          0,     0.00, 0.000118065,   -34.15,    1.98451,   155.08,    1.98449,    35.08,    1.98447,   -84.92,          0,     0.00, 0.000118065,   145.85
Line.L_BSB_MT_2115,    1.98451,   -24.92,    1.98449,  -144.92,    1.98447,    95.08,          0,     0.00, 0.000118065,   -34.15,    1.98451,   155.08,    1.98449,    35.08,    1.98447,   -84.92,          0,     0.00, 0.000118065,   145.85
Line.L_BSB_MT_2116,    1.98451,   -24.92,    1.98449,  -144.92,    1.98447,    95.08,          0,     0.00, 0.000118065,   -34.15,    1.98451,   155.08,    1.98449,    35.08,    1.98447,   -84.92,          0,     0.00, 0.000118065,   145.85
Line.L_BSB_MT_2117,    1.98451,   -24.92,    1.98449,  -144.92,    1.98447,    95.08,          0,     0.00, 0.000118065,   -34.15,    1.98451,   155.08,    1.98449,    35.08,    1.98447,   -84.92,          0,     0.00, 0.000118065,   145.85
Line.L_BSB_MT_2118,    5.83469,   -25.19,    5.83484,  -145.20,    5.83494,    94.80,          0,     0.00, 0.000267737,   121.34,    5.83469,   154.81,    5.83484,    34.80,    5.83494,   -85.20,          0,     0.00, 0.000267737,   -58.66
Line.L_BSB_MT_2119,    3.88972,   -25.20,    3.88977,  -145.20,    3.88993,    94.80,          0,     0.00, 0.000228366,    95.09,    3.88972,   154.80,    3.88977,    34.80,    3.88993,   -85.20,          0,     0.00, 0.000228366,   -84.91
...
Line.L_1431047023, 6.79631E-011,    15.52, 5.83212E-011,  -176.42, 1.17321E-010,    97.13,          0,     0.00, 1.31169E-010,    93.18, 8.07762E-011,  -172.23, 6.55846E-011,     3.18, 1.19998E-010,   -75.96,          0,     0.00, 1.24544E-010,   -83.29
Line.L_BSB_MT_3777,    13.4289,   159.00,    13.4289,    39.00,    13.4289,   -81.00,          0,     0.00, 0.000154812,   -11.14,    13.4289,   -21.00,    13.4289,  -141.00,    13.4289,    99.00,          0,     0.00, 0.000154812,   168.86
Line.L_BSB_MT_3778,    18.7126,   152.31,    18.7125,    32.31,    18.7128,   -87.69,          0,     0.00, 0.000102872,   -35.50,    18.7126,   -27.69,    18.7125,  -147.69,    18.7128,    92.31,          0,     0.00, 0.000102872,   144.50
Line.L_BSB_MT_3779,    18.7126,   -27.69,    18.7125,  -147.69,    18.7128,    92.31,          0,     0.00, 0.000102872,   144.50,    18.7126,   152.31,    18.7125,    32.31,    18.7128,   -87.69,          0,     0.00, 0.000102872,   -35.50
Line.L_BSB_MT_3780, 4.25815E-011,   109.98, 1.25931E-010,   -10.82, 1.16415E-010,    90.00,          0,     0.00, 1.71882E-010,    50.58, 4.78501E-011,   -98.75, 4.77463E-011,    72.26, 8.23181E-011,  -135.00,          0,     0.00, 7.87225E-011,  -130.31
Line.L_BSB_MT_3781, 2.63144E-005,    18.16, 0.00013101,  -175.67, 5.52641E-005,    23.90,          0,     0.00, 5.88684E-005,   159.41, 2.63144E-005,  -161.84, 0.00013101,     4.33, 5.52641E-005,  -156.10,          0,     0.00, 5.88684E-005,   -20.59
Line.L_BSB_MT_3782,    16.8332,   155.10,    16.8331,    35.10,    16.8332,   -84.90,          0,     0.00, 7.02264E-005,   -92.57,    16.8332,   -24.90,    16.8331,  -144.90,    16.8332,    95.10,          0,     0.00, 7.02267E-005,    87.43
Line.L_BSB_MT_3783,    16.8332,   155.10,    16.8331,    35.10,    16.8332,   -84.90,          0,     0.00, 7.02267E-005,   -92.57,    16.8332,   -24.90,    16.8331,  -144.90,    16.8332,    95.10,          0,     0.00, 7.02267E-005,    87.43
Line.L_BSB_MT_3786,    18.7126,   152.31,    18.7125,    32.31,    18.7128,   -87.69,          0,     0.00, 0.000102873,   -35.50,    18.7126,   -27.69,    18.7125,  -147.69,    18.7128,    92.31,          0,     0.00, 0.000102873,   144.50
Line.L_BSB_MT_3787,    18.7126,   152.31,    18.7125,    32.31,    18.7128,   -87.69,          0,     0.00, 0.000102872,   -35.50,    18.7126,   -27.69,    18.7125,  -147.69,    18.7128,    92.31,          0,     0.00, 0.000102872,   144.50
Line.L_BSB_MT_3788,    2.50911,   155.13,    2.50906,    35.13,    2.50907,   -84.87,          0,     0.00, 3.5635E-005,    32.14,    2.50911,   -24.87,    2.50906,  -144.87,    2.50907,    95.13,          0,     0.00, 3.56351E-005,  -147.86
Line.L_BSB_MT_3789,   0.528294,   155.12,   0.528213,    35.12,   0.528318,   -84.87,          0,     0.00, 6.82047E-005,  -104.08,   0.528294,   -24.88,   0.528213,  -144.88,   0.528318,    95.13,          0,     0.00, 6.82046E-005,    75.92
Line.L_BSB_MT_3790,   0.528294,   155.12,   0.528213,    35.12,   0.528318,   -84.87,          0,     0.00, 6.82046E-005,  -104.08,   0.528294,   -24.88,   0.528213,  -144.88,   0.528318,    95.13,          0,     0.00, 6.82046E-005,    75.92
Line.L_BSB_MT_7287,    78.8168,   -25.23,    78.8169,  -145.23,    78.8167,    94.77,          0,     0.00, 0.000481368,   -34.70,    78.8168,   154.77,    78.8169,    34.77,    78.8167,   -85.23,          0,     0.00, 0.000481368,   145.30
Line.L_BSB_MT_5075, 9.92975E-011,   -28.44, 5.06816E-010,   140.83, 2.11879E-010,    15.95,          0,     0.00, 3.46373E-010,   107.10, 1.12953E-010,   165.07, 4.63625E-010,   -38.31, 1.84069E-010,  -161.57,          0,     0.00, 3.26467E-010,   -75.81
Line.L_BSB_MT_5076, 9.60454E-011,   -24.62, 3.5602E-010,   168.80, 2.18279E-010,     0.00,          0,     0.00, 5.24677E-011,   146.31, 1.23477E-010,   135.00, 3.54063E-010,    -9.46, 2.47383E-010,  -151.93,          0,     0.00, 9.76172E-011,   -63.43
Line.L_BSB_MT_5077, 5.86606E-011,    97.13, 9.29644E-011,   149.42, 4.36557E-011,     0.00,          0,     0.00, 1.14177E-010,   112.48, 4.1159E-011,   -45.00, 9.32487E-011,   -20.56, 6.50781E-011,   153.43,          0,     0.00, 6.67844E-011,   -29.36
Line.L_BSB_MT_8807,    3.96078,   155.10,    3.96074,    35.10,     3.9608,   -84.90,          0,     0.00, 2.32313E-005,  -141.74,    3.96078,   -24.90,    3.96074,  -144.90,     3.9608,    95.10,          0,     0.00, 2.32312E-005,    38.26
Line.L_BSB_MT_8808,    16.8332,   155.10,    16.8331,    35.10,    16.8332,   -84.90,          0,     0.00, 7.02267E-005,   -92.57,    16.8332,   -24.90,    16.8331,  -144.90,    16.8332,    95.10,          0,     0.00, 7.02269E-005,    87.43
Line.L_BSB_MT_8809,    5.67835,   -24.87,    5.67851,  -144.88,    5.67825,    95.13,          0,     0.00, 0.000295627,   154.28,    5.67835,   155.13,    5.67851,    35.12,    5.67825,   -84.87,          0,     0.00, 0.000295627,   -25.72
Line.L_BSB_MT_6117, 2.63144E-005,    18.16, 0.000131011,  -175.67, 5.52643E-005,    23.90,          0,     0.00, 5.88685E-005,   159.41, 2.63144E-005,  -161.84, 0.000131011,     4.33, 5.52642E-005,  -156.10,          0,     0.00, 5.88684E-005,   -20.59
Line.L_BSB_MT_6119,    15.7452,   151.78,    15.7451,    31.78,    15.7453,   -88.22,          0,     0.00, 0.000102135,   -35.39,    15.7452,   -28.22,    15.7451,  -148.22,    15.7453,    91.78,          0,     0.00, 0.000102135,   144.61
Line.L_BSB_MT_6121,    1.18835,   -24.87,    1.18837,  -144.87,    1.18844,    95.13,          0,     0.00, 8.60495E-005,    95.00,    1.18835,   155.13,    1.18837,    35.13,    1.18844,   -84.87,          0,     0.00, 8.60496E-005,   -85.00
Line.L_BSB_MT_170699,    1.98451,   -24.92,    1.98449,  -144.92,    1.98447,    95.08,          0,     0.00, 0.000118065,   -34.15,    1.98451,   155.08,    1.98449,    35.08,    1.98447,   -84.92,          0,     0.00, 0.000118065,   145.85
Line.L_BSB_MT_170700, 2.56316E-010,  -124.59, 2.62338E-010,   176.82, 1.45519E-010,    53.13,          0,     0.00, 3.29995E-010,  -165.96, 1.49998E-010,    14.04, 5.99991E-011,   -14.04, 1.19998E-010,   -75.96,          0,     0.00, 2.5131E-010,   -22.11
Line.L_BSB_MT_170701, 1.45701E-010,  -177.14, 1.22238E-010,  -126.53, 2.32831E-010,   180.00,          0,     0.00, 4.63282E-010,  -166.84, 2.18309E-010,   -66.43, 3.19894E-010,    17.20, 2.60313E-010,    26.57,          0,     0.00, 6.25828E-010,     1.00
Line.L_BSB_MT_5108,    275.174,   -25.27,    275.176,  -145.27,    275.176,    94.73,          0,     0.00, 0.00155411,   129.80,    275.174,   154.73,    275.176,    34.73,    275.176,   -85.27,          0,     0.00, 0.00155411,   -50.20
Line.L_BSB_MT_5110,    8.91152,   -24.90,    8.91151,  -144.90,    8.91141,    95.10,          0,     0.00, 0.000101967,  -111.13,    8.91152,   155.10,    8.91151,    35.10,    8.91141,   -84.90,          0,     0.00, 0.000101967,    68.87
Line.L_BSB_MT_5111,   0.528112,   155.14,   0.528223,    35.13,   0.528228,   -84.88,          0,     0.00, 0.000109416,  -104.66,   0.528112,   -24.86,   0.528223,  -144.87,   0.528228,    95.12,          0,     0.00, 0.000109417,    75.34
Line.L_BSB_MT_5120,    215.098,   154.62,    215.099,    34.62,    215.099,   -85.38,          0,     0.00, 0.000476632,   -99.00,    215.098,   -25.38,    215.099,  -145.38,    215.099,    94.62,          0,     0.00, 0.000476632,    81.00
Line.L_BSB_MT_5122,    215.098,   154.62,    215.099,    34.62,    215.099,   -85.38,          0,     0.00, 0.000476631,   -99.00,    215.098,   -25.38,    215.099,  -145.38,    215.099,    94.62,          0,     0.00, 0.000476631,    81.00
Line.L_BSB_MT_5123,    61.5291,   154.22,    61.5294,    34.22,    61.5294,   -85.78,          0,     0.00, 0.000195944,    -8.13,    61.5291,   -25.78,    61.5294,  -145.78,    61.5294,    94.22,          0,     0.00, 0.000195944,   171.87
Line.L_BSB_MT_5124,    5.82304,   -25.21,    5.82304,  -145.21,    5.82304,    94.79,          0,     0.00, 9.45216E-007,   -24.28,    5.82304,   154.79,    5.82304,    34.79,    5.82304,   -85.21,          0,     0.00, 9.46888E-007,   155.66
Line.L_BSB_MT_6222,    42.2795,   154.77,    42.2795,    34.77,    42.2796,   -85.23,          0,     0.00, 0.000135161,  -172.73,    42.2795,   -25.23,    42.2795,  -145.23,    42.2796,    94.77,          0,     0.00, 0.000135161,     7.27
Line.L_BSB_MT_3748_1,    60.0784,   -24.89,    60.0791,  -144.89,    60.0792,    95.11,          0,     0.00, 0.00126459,   147.28,    60.0784,   155.11,    60.0791,    35.11,    60.0792,   -84.89,          0,     0.00, 0.00126459,   -32.72
Line.L_65485804, 1.30156E-010,   116.57, 7.19989E-010,    14.04, 6.18756E-010,  -131.19,          0,     0.00, 2.91038E-010,   -36.87, 2.91038E-010,   -90.00, 2.60313E-010,  -153.43, 4.19741E-010,    33.69,          0,     0.00, 2.09871E-010,   -56.31
Line.L_65485806, 1.16415E-010,   180.00, 4.19741E-010,   -56.31, 6.58545E-010,  -135.00,          0,     0.00, 8.86593E-010,  -113.20, 3.13458E-010,   -68.20, 2.39996E-010,    14.04, 1.16415E-010,     0.00,          0,     0.00, 5.20625E-010,   -26.57
Line.L_65590863,    275.174,   -25.27,    275.176,  -145.27,    275.176,    94.73,          0,     0.00, 0.00156492,   126.92,    275.174,   154.73,    275.176,    34.73,    275.176,   -85.27,          0,     0.00, 0.00156492,   -53.08
Line.L_65590866,    275.174,   -25.27,    275.176,  -145.27,    275.176,    94.73,          0,     0.00, 0.00156492,   126.92,    275.174,   154.73,    275.176,    34.73,    275.176,   -85.27,          0,     0.00, 0.00156492,   -53.08
Line.L_65590869,    275.174,   -25.27,    275.176,  -145.27,    275.176,    94.73,          0,     0.00, 0.00156492,   126.92,    275.174,   154.73,    275.176,    34.73,    275.176,   -85.27,          0,     0.00, 0.00156492,   -53.08
Line.L_65590871,    275.174,   -25.27,    275.176,  -145.27,    275.176,    94.73,          0,     0.00, 0.00156492,   126.92,    275.174,   154.73,    275.176,    34.73,    275.176,   -85.27,          0,     0.00, 0.00156492,   -53.08
Line.L_65490848,    275.174,   154.73,    275.176,    34.73,    275.176,   -85.27,          0,     0.00, 0.00156492,   -53.08,    275.174,   -25.27,    275.176,  -145.27,    275.176,    94.73,          0,     0.00, 0.00156492,   126.92
Line.L_BSB_MT_3748_2,    59.2883,   -24.89,     59.289,  -144.89,    59.2892,    95.11,          0,     0.00,  0.0012644,   147.28,    59.2883,   155.11,     59.289,    35.11,    59.2892,   -84.89,          0,     0.00,  0.0012644,   -32.72
Line.L_TR_MT_ALIM11,    215.098,   -25.38,    215.099,  -145.38,    215.099,    94.62,          0,     0.00, 0.000476631,    81.00,    215.098,   154.62,    215.099,    34.62,    215.099,   -85.38,          0,     0.00, 0.000476631,   -99.00
Line.L_SUB_TR_MT_18,    275.174,   -25.27,    275.176,  -145.27,    275.176,    94.73,          0,     0.00, 0.00156492,   126.92,    275.174,   154.73,    275.176,    34.73,    275.176,   -85.27,          0,     0.00, 0.00156492,   -53.08
...